# File generated by Flopy version 3.3.2 on 11/18/2020 at 18:59:36.
BEGIN options
  auxiliary  CONCENTRATION
  PRINT_INPUT
  PRINT_FLOWS
END options

BEGIN dimensions
  MAXBOUND  10
END dimensions

BEGIN period  1
  1 1 20       1.00000000      35.00000000
  2 1 20       1.00000000      35.00000000
  3 1 20       1.00000000      35.00000000
  4 1 20       1.00000000      35.00000000
  5 1 20       1.00000000      35.00000000
  6 1 20       1.00000000      35.00000000
  7 1 20       1.00000000      35.00000000
  8 1 20       1.00000000      35.00000000
  9 1 20       1.00000000      35.00000000
  10 1 20       1.00000000      35.00000000
END period  1

