# File generated by Flopy version 3.3.2 on 11/18/2020 at 18:59:36.
BEGIN options
END options

BEGIN packages
  DIS6  gwf_henry01.dis  dis
  IC6  gwf_henry01.ic  ic
  NPF6  gwf_henry01.npf  npf
  BUY6  gwf_henry01.buy  buy
  CHD6  gwf_henry01.chd  chd-1
  WEL6  gwf_henry01.wel  wel-1
  OC6  gwf_henry01.oc  oc
END packages

