# File generated by Flopy version 3.3.2 on 11/18/2020 at 18:59:36.
BEGIN options
END options

BEGIN dimensions
  NLAY  10
  NROW  1
  NCOL  20
END dimensions

BEGIN griddata
  delr
    CONSTANT       0.10000000
  delc
    CONSTANT       1.00000000
  top
    CONSTANT       1.00000000
  botm  LAYERED
    CONSTANT       0.90000000
    CONSTANT       0.80000000
    CONSTANT       0.70000000
    CONSTANT       0.60000000
    CONSTANT       0.50000000
    CONSTANT       0.40000000
    CONSTANT       0.30000000
    CONSTANT       0.20000000
    CONSTANT       0.10000000
    CONSTANT       0.00000000
END griddata

