# File generated by Flopy version 3.3.2 on 11/18/2020 at 18:59:36.
BEGIN options
  DENSEREF    1000.00000000
END options

BEGIN dimensions
  NRHOSPECIES  1
END dimensions

BEGIN packagedata
  1       0.70000000       0.00000000  gwt_henry01  none
END packagedata

