# File generated by Flopy version 3.3.2 on 11/18/2020 at 18:59:36.
BEGIN options
  BUDGET  FILEOUT  gwf_henry01.cbc
  HEAD  FILEOUT  gwf_henry01.hds
  HEAD  PRINT_FORMAT  COLUMNS  10  WIDTH  15  DIGITS  6  GENERAL
END options

BEGIN period  1
  SAVE  HEAD  LAST
  SAVE  BUDGET  LAST
  PRINT  HEAD  LAST
  PRINT  BUDGET  LAST
END period  1

