# File generated by Flopy version 3.3.2 on 11/18/2020 at 18:59:36.
BEGIN options
  SAVE_FLOWS
  
  SAVE_SPECIFIC_DISCHARGE
END options

BEGIN griddata
  icelltype
    CONSTANT  0
  k
    CONSTANT     864.00000000
END griddata

