# File generated by Flopy version 3.3.2 on 11/18/2020 at 18:59:36.
BEGIN options
END options

BEGIN sources
  CHD-1  AUX  CONCENTRATION
  WEL-1  AUX  CONCENTRATION
END sources

