# File generated by Flopy version 3.3.2 on 11/18/2020 at 18:59:36.
BEGIN options
  XT3D_OFF
END options

BEGIN griddata
  diffc
    CONSTANT       0.57024000
END griddata

