# File generated by Flopy version 3.3.2 on 11/18/2020 at 18:59:36.
BEGIN options
END options

BEGIN griddata
  porosity
    CONSTANT       0.35000000
END griddata

