# File generated by Flopy version 3.3.2 on 11/18/2020 at 18:59:36.
BEGIN options
  BUDGET  FILEOUT  gwt_henry01.cbc
  CONCENTRATION  FILEOUT  gwt_henry01.ucn
  CONCENTRATION  PRINT_FORMAT  COLUMNS  10  WIDTH  15  DIGITS  6  GENERAL
END options

BEGIN period  1
  SAVE  CONCENTRATION  ALL
  PRINT  CONCENTRATION  LAST
  PRINT  BUDGET  LAST
END period  1

