# File generated by Flopy version 3.3.2 on 11/18/2020 at 18:59:36.
BEGIN options
END options

BEGIN packages
  DIS6  gwt_henry01.dis  dis
  IC6  gwt_henry01.ic  ic
  ADV6  gwt_henry01.adv  adv
  DSP6  gwt_henry01.dsp  dsp
  MST6  gwt_henry01.sto  mst
  SSM6  gwt_henry01.ssm  ssm
  OC6  gwt_henry01.oc  oc
END packages

