# File generated by Flopy version 3.3.2 on 11/18/2020 at 18:59:36.
BEGIN griddata
  strt
    CONSTANT      35.00000000
END griddata

