# File generated by Flopy version 3.3.2 on 11/18/2020 at 18:59:36.
BEGIN options
  SCHEME  upstream
END options

