# File generated by Flopy version 3.3.2 on 11/18/2020 at 18:59:36.
BEGIN options
  TIME_UNITS  days
END options

BEGIN dimensions
  NPER  1
END dimensions

BEGIN perioddata
       0.50000000  500       1.00000000
END perioddata

