# File generated by Flopy version 3.3.2 on 11/18/2020 at 18:59:36.
BEGIN options
END options

BEGIN timing
  TDIS6  henry01.tdis
END timing

BEGIN models
  gwf6  gwf_henry01.nam  gwf_henry01
  gwt6  gwt_henry01.nam  gwt_henry01
END models

BEGIN exchanges
  GWF6-GWT6  henry01.gwfgwt  gwf_henry01  gwt_henry01
END exchanges

BEGIN solutiongroup  1
  ims6  gwf_henry01.ims  gwf_henry01
  ims6  gwt_henry01.ims  gwt_henry01
END solutiongroup  1

