# File generated by Flopy version 3.3.2 on 11/18/2020 at 19:06:43.
BEGIN options
  TIME_UNITS  days
END options

BEGIN dimensions
  NPER  1
END dimensions

BEGIN perioddata
      10.00000000  50       1.00000000
END perioddata

