# File generated by Flopy version 3.3.2 on 11/18/2020 at 19:06:43.
BEGIN griddata
  strt  LAYERED
    INTERNAL  FACTOR  1.0
           3.50000000       3.50000000       3.50000000       3.50000000       3.50000000       3.50000000       3.50000000
    INTERNAL  FACTOR  1.0
           3.00000000       2.50000000       2.50000000       2.50000000       2.50000000       2.50000000       3.00000000
    INTERNAL  FACTOR  1.0
           2.00000000       2.00000000       2.00000000       2.00000000       2.00000000       2.00000000       2.00000000
    INTERNAL  FACTOR  1.0
           1.00000000       1.00000000       1.00000000       1.00000000       1.00000000       1.00000000       1.00000000
END griddata

