# File generated by Flopy version 3.3.2 on 11/18/2020 at 19:06:43.
BEGIN options
END options

BEGIN griddata
  iconvert
    CONSTANT  1
  ss
    CONSTANT       0.00000000
  sy
    CONSTANT       0.30000000
END griddata

