# File generated by Flopy version 3.3.2 on 11/18/2020 at 19:06:43.
BEGIN options
  NEWTON
END options

BEGIN packages
  DIS6  gwf_buy_lak_01a.dis  dis
  IC6  gwf_buy_lak_01a.ic  ic
  NPF6  gwf_buy_lak_01a.npf  npf
  STO6  gwf_buy_lak_01a.sto  sto
  LAK6  gwf_buy_lak_01a.lak  lak-1
  OC6  gwf_buy_lak_01a.oc  oc
END packages

