# File generated by Flopy version 3.3.2 on 11/18/2020 at 19:06:43.
BEGIN options
  DIGITS  10
END options

BEGIN continuous  FILEOUT  gwf_buy_lak_01a.lak.obs.csv
  lakestage  stage  1
  lakevolume  volume  1
  lak1  lak  1  1
  lak2  lak  1  2
  lak3  lak  1  3
  lak4  lak  1  4
  lak5  lak  1  5
  lak6  lak  1  6
  lak7  lak  1  7
  lak8  lak  1  8
  lak9  lak  1  9
  lak10  lak  1  10
  lak11  lak  1  11
END continuous  FILEOUT  gwf_buy_lak_01a.lak.obs.csv

