# File generated by Flopy version 3.3.2 on 11/18/2020 at 19:06:43.
BEGIN options
END options

BEGIN timing
  TDIS6  buy_lak_01a.tdis
END timing

BEGIN models
  gwf6  gwf_buy_lak_01a.nam  gwf_buy_lak_01a
END models

BEGIN exchanges
END exchanges

BEGIN solutiongroup  1
  ims6  gwf_buy_lak_01a.ims  gwf_buy_lak_01a
END solutiongroup  1

