# File generated by Flopy version 3.3.2 on 11/18/2020 at 19:08:43.
BEGIN options
  PRINT_OPTION  all
END options

BEGIN nonlinear
  OUTER_DVCLOSE  1.00000000E-08
  OUTER_MAXIMUM  700
  UNDER_RELAXATION  none
END nonlinear

BEGIN linear
  INNER_MAXIMUM  300
  INNER_DVCLOSE  1.00000000E-08
  inner_rclose  1.00000000E-06
  LINEAR_ACCELERATION  bicgstab
  RELAXATION_FACTOR       0.97000000
  SCALING_METHOD  none
  REORDERING_METHOD  none
END linear

