# File generated by Flopy version 3.3.2 on 11/18/2020 at 19:08:43.
BEGIN options
  BUDGET  FILEOUT  gwf_buy_lak_01a.cbc
  HEAD  FILEOUT  gwf_buy_lak_01a.hds
  HEAD  PRINT_FORMAT  COLUMNS  10  WIDTH  15  DIGITS  6  GENERAL
END options

BEGIN period  1
  SAVE  HEAD  ALL  STEPS
  SAVE  BUDGET  ALL  STEPS
  PRINT  HEAD  LAST  STEPS
  PRINT  BUDGET  LAST  STEPS
END period  1

