# File generated by Flopy version 3.3.2 on 11/18/2020 at 19:08:43.
BEGIN options
END options

BEGIN dimensions
  NLAY  4
  NROW  1
  NCOL  7
END dimensions

BEGIN griddata
  delr
    CONSTANT       1.00000000
  delc
    CONSTANT       1.00000000
  top
    CONSTANT       4.00000000
  botm  LAYERED
    CONSTANT       3.00000000
    CONSTANT       2.00000000
    CONSTANT       1.00000000
    CONSTANT       0.00000000
  idomain  LAYERED
    INTERNAL  FACTOR  1
      1  0  0  0  0  0  1
    INTERNAL  FACTOR  1
      1  1  0  0  0  1  1
    INTERNAL  FACTOR  1
      1  1  1  0  1  1  1
    INTERNAL  FACTOR  1
      1  1  1  1  1  1  1
END griddata

