# File generated by Flopy version 3.3.2 on 11/18/2020 at 19:08:43.
BEGIN options
  SAVE_FLOWS
  
  SAVE_SPECIFIC_DISCHARGE
END options

BEGIN griddata
  icelltype
    CONSTANT  1
  k
    CONSTANT       1.00000000
  k33
    CONSTANT       1.00000000
END griddata

